data_image0
_chemical_formula_structural       MoNb5MoNb4MoNb2MoWMoNb2Mo2Nb2Mo2NbTaNb2MoNbMoNbMoNbWNb2Mo2TaNbMo2NbTaMoNb2Mo2NbMoNbMoNbMoNb2MoNb2MoWNb4MoNb5WNbMoNb3MoNbMoNb7Mo3TaWNbMoNbWNbMoNb2MoNbWMo3Nb5Mo2Nb3Mo3Nb2MoNbMo
_chemical_formula_sum              "Mo44 Nb72 W7 Ta4"
_cell_length_a       12.8
_cell_length_b       12.8
_cell_length_c       12.8
_cell_angle_alpha    90.0
_cell_angle_beta     90.0
_cell_angle_gamma    90.0

_space_group_name_H-M_alt    "P 1"
_space_group_IT_number       1

loop_
  _space_group_symop_operation_xyz
  'x, y, z'

loop_
  _atom_site_type_symbol
  _atom_site_label
  _atom_site_symmetry_multiplicity
  _atom_site_fract_x
  _atom_site_fract_y
  _atom_site_fract_z
  _atom_site_occupancy
  Mo  Mo1       1.0  0.001349480785211583  0.9990654187390644  0.9970964995126199  1.0000
  Nb  Nb1       1.0  0.12417937941344126  0.12450304079863687  0.12490679548244261  1.0000
  Nb  Nb2       1.0  0.9968701309396386  0.0005982218881746907  0.24861745361315168  1.0000
  Nb  Nb3       1.0  0.12735646509055576  0.1307027813433796  0.3769332671187382  1.0000
  Nb  Nb4       1.0  0.9982180932772098  0.0006890500380307585  0.5038226576113034  1.0000
  Nb  Nb5       1.0  0.12704611744483324  0.12858425423983935  0.6248870426421577  1.0000
  Mo  Mo2       1.0  0.0017655346454231308  0.0003352674876208307  0.7494517038123044  1.0000
  Nb  Nb6       1.0  0.1256747447974258  0.12413478949097805  0.8689808802046621  1.0000
  Nb  Nb7       1.0  0.0020326062096884296  0.24978093982352767  0.9997477044253811  1.0000
  Nb  Nb8       1.0  0.12801848761209744  0.3761579509665833  0.12897177711135202  1.0000
  Nb  Nb9       1.0  0.9975045129146867  0.2505636667813015  0.25304702345401275  1.0000
  Mo  Mo3       1.0  0.11997283637785829  0.3774431775938885  0.3744123071950764  1.0000
  Nb  Nb10      1.0  0.9973135446282559  0.2543533676435177  0.5020942426357451  1.0000
  Nb  Nb11      1.0  0.12927384542978723  0.37454507020883043  0.6247139388120694  1.0000
  Mo  Mo4       1.0  0.00212090478736006  0.2504705942243439  0.7495439462835884  1.0000
  W   W1        1.0  0.12598854037686008  0.3748530474962308  0.87456429171061  1.0000
  Mo  Mo5       1.0  0.001757822586726721  0.49996737271213254  0.0015241079061558836  1.0000
  Nb  Nb12      1.0  0.12795029777128888  0.6222460530463306  0.1254828079997922  1.0000
  Nb  Nb13      1.0  0.001879973262240053  0.5020944335550386  0.25522428076279285  1.0000
  Mo  Mo6       1.0  0.1254684976151336  0.6244444121839051  0.37531199903758533  1.0000
  Mo  Mo7       1.0  0.0002835417827030185  0.5013515310890765  0.5020612941440843  1.0000
  Nb  Nb14      1.0  0.12878177407725666  0.6252891080419543  0.6272186526225256  1.0000
  Nb  Nb15      1.0  0.0029300258276420982  0.4993427724762166  0.7504368657694969  1.0000
  Mo  Mo8       1.0  0.12386602523656398  0.6248098411841845  0.8760119743138218  1.0000
  Mo  Mo9       1.0  0.0006903393106420378  0.7503842684003108  0.9992917383005936  1.0000
  Nb  Nb16      1.0  0.12196938016441441  0.8736392533088007  0.11886891014047526  1.0000
  Ta  Ta1       1.0  0.9979567764040107  0.7491284734352399  0.2501230859280418  1.0000
  Nb  Nb17      1.0  0.12482546387321078  0.8757800752823863  0.37519459802494376  1.0000
  Nb  Nb18      1.0  0.00010391311105099272  0.7488376811023758  0.500014565124846  1.0000
  Mo  Mo10      1.0  0.1250703599960259  0.8760868903060206  0.6256093034927152  1.0000
  Nb  Nb19      1.0  0.003087558788074202  0.7556583754841895  0.7517010318973276  1.0000
  Mo  Mo11      1.0  0.12669569020672752  0.8745903806361423  0.87254803866398  1.0000
  Nb  Nb20      1.0  0.2506380837118254  0.9996466626111836  0.995329493496604  1.0000
  Mo  Mo12      1.0  0.3754999090984379  0.12701521722511594  0.12920564004369678  1.0000
  Nb  Nb21      1.0  0.2501918241366682  0.0007099110654283315  0.24849611590079243  1.0000
  W   W2        1.0  0.3766330346760596  0.12203633036370376  0.37407311333760673  1.0000
  Nb  Nb22      1.0  0.25057658250947423  0.0020432451893338914  0.5002322046005095  1.0000
  Nb  Nb23      1.0  0.3724716222907589  0.12996088580952067  0.6212466582618915  1.0000
  Mo  Mo13      1.0  0.2501461466046175  0.000384659593786617  0.7485924851636845  1.0000
  Mo  Mo14      1.0  0.3758606349081789  0.12319914230577761  0.8744653206509639  1.0000
  Ta  Ta2       1.0  0.25161375113534623  0.24716466803591286  0.0005383483003175362  1.0000
  Nb  Nb24      1.0  0.37512772518466736  0.37771438705287924  0.13091357224640607  1.0000
  Mo  Mo15      1.0  0.25297827211518986  0.2513262983225639  0.2516309914108051  1.0000
  Mo  Mo16      1.0  0.45383570424674774  0.45397144673758494  0.45389732280221673  1.0000
  Nb  Nb25      1.0  0.2663320404433014  0.27097367638353065  0.4786577031134427  1.0000
  Ta  Ta3       1.0  0.3742950285986349  0.37898899645436274  0.6300732654934593  1.0000
  Mo  Mo17      1.0  0.24983494379095716  0.2499883960128603  0.7479838057698087  1.0000
  Nb  Nb26      1.0  0.37121567670449557  0.37479759940297724  0.8757774724920308  1.0000
  Nb  Nb27      1.0  0.24908789307374524  0.501831979496329  0.0020120255267925794  1.0000
  Mo  Mo18      1.0  0.3743093182878329  0.6234764755649186  0.12741702289121537  1.0000
  Mo  Mo19      1.0  0.2596014349156706  0.4899877412223599  0.2645883497904516  1.0000
  Nb  Nb28      1.0  0.374587297318954  0.6257618430720063  0.3745047716051918  1.0000
  Mo  Mo20      1.0  0.2446751788626214  0.5005196958378019  0.49859086086557614  1.0000
  Nb  Nb29      1.0  0.37743157146741546  0.6170810310128456  0.6159666728575109  1.0000
  Mo  Mo21      1.0  0.24887379442035176  0.5021713651382402  0.7520241671905346  1.0000
  Nb  Nb30      1.0  0.36898483030904417  0.6295424065336076  0.8751719126470212  1.0000
  Mo  Mo22      1.0  0.24795447858426273  0.7503594735139452  0.9985459476362842  1.0000
  Nb  Nb31      1.0  0.3737085508179545  0.8731228359244186  0.12260108947901763  1.0000
  Nb  Nb32      1.0  0.24865836060585506  0.746920786878431  0.2483804789414548  1.0000
  Mo  Mo23      1.0  0.3740910614252225  0.876411479529302  0.37402423046785405  1.0000
  Nb  Nb33      1.0  0.24971972459099992  0.7509985690275118  0.500474718637791  1.0000
  Nb  Nb34      1.0  0.37292314095541945  0.8752990485961081  0.6265811812313761  1.0000
  Mo  Mo24      1.0  0.2512481331170945  0.7506674124332344  0.7495007381229728  1.0000
  W   W3        1.0  0.37383125678239415  0.8747252531490441  0.8733980734247602  1.0000
  Nb  Nb35      1.0  0.49967754881812343  0.0008532962852901826  0.0003559803962127058  1.0000
  Nb  Nb36      1.0  0.6243042293992767  0.1303667939892387  0.12960063117804055  1.0000
  Nb  Nb37      1.0  0.4999440918318422  0.001063892258170222  0.25096909274875845  1.0000
  Nb  Nb38      1.0  0.6226178236580182  0.12731597979919226  0.37753651463715754  1.0000
  Mo  Mo25      1.0  0.4991028273161597  0.9987044035894128  0.5015162980075445  1.0000
  Nb  Nb39      1.0  0.6249222717190233  0.1249652216763815  0.6229929748681076  1.0000
  Nb  Nb40      1.0  0.49975826159664016  0.9984122440029054  0.7501060517057776  1.0000
  Nb  Nb41      1.0  0.6284342329569719  0.12398498656831508  0.8763312109629072  1.0000
  Nb  Nb42      1.0  0.49749064083377803  0.24861625271623114  0.00485395169080083  1.0000
  Nb  Nb43      1.0  0.6235169271217982  0.37439048573048356  0.12898034366114805  1.0000
  W   W4        1.0  0.49155928974586127  0.25921314887804103  0.2635137062613694  1.0000
  Nb  Nb44      1.0  0.6295719620573967  0.3745347087354767  0.3779048302660376  1.0000
  Mo  Mo26      1.0  0.49806926025792475  0.24684156161998064  0.4981712704387858  1.0000
  Nb  Nb45      1.0  0.6189451709359933  0.3777478090278542  0.6147635125545793  1.0000
  Nb  Nb46      1.0  0.5007482166630324  0.248596394061858  0.7511932871964877  1.0000
  Nb  Nb47      1.0  0.6270366504143743  0.37312272316877954  0.8777324357330839  1.0000
  Mo  Mo27      1.0  0.4991914059891401  0.5004077387079935  0.9995927234159032  1.0000
  Nb  Nb48      1.0  0.6229588139105009  0.6228962315315274  0.127441868292096  1.0000
  Mo  Mo28      1.0  0.4992858749711261  0.4976052223393972  0.24880255480898772  1.0000
  Nb  Nb49      1.0  0.6173746592699569  0.6165516372049006  0.38116098983895164  1.0000
  Nb  Nb50      1.0  0.6107981974408646  0.61123103926749  0.6069556249074808  1.0000
  Nb  Nb51      1.0  0.5000087478786668  0.501132118820705  0.7560067750277362  1.0000
  Nb  Nb52      1.0  0.6274420990908816  0.6276536608594764  0.8761633365595156  1.0000
  Nb  Nb53      1.0  0.4984482292633453  0.7497519439254873  0.9990503089207797  1.0000
  Nb  Nb54      1.0  0.6289341008871524  0.8725070956846541  0.12445003319617909  1.0000
  Nb  Nb55      1.0  0.5012776812973506  0.7506466305493659  0.2527563894114017  1.0000
  Mo  Mo29      1.0  0.6242461047397477  0.8750906725709207  0.3759468427789546  1.0000
  Mo  Mo30      1.0  0.49781030350840216  0.7542988047440952  0.4987816777890313  1.0000
  Mo  Mo31      1.0  0.6242149931079278  0.8728082941619071  0.6260936717983323  1.0000
  Ta  Ta4       1.0  0.5009523862040589  0.749355385365059  0.7462000246003011  1.0000
  W   W5        1.0  0.6253873321238567  0.875239975488705  0.8756142196692649  1.0000
  Nb  Nb56      1.0  0.7551873781921221  0.9981656618920955  0.0008285333947903748  1.0000
  Mo  Mo32      1.0  0.8749557293001486  0.12552033147789143  0.12662626402039448  1.0000
  Nb  Nb57      1.0  0.7506741886042092  0.0010600054922772436  0.25081523582356935  1.0000
  W   W6        1.0  0.873403028302316  0.12589171584515849  0.3772893132955645  1.0000
  Nb  Nb58      1.0  0.7490111871897133  0.9988156878120871  0.5029427704699426  1.0000
  Mo  Mo33      1.0  0.8760913291836036  0.12474649949703281  0.6245234629775602  1.0000
  Nb  Nb59      1.0  0.7544466871718511  0.996429988909718  0.748599344251995  1.0000
  Nb  Nb60      1.0  0.8793708117901312  0.12321392629784414  0.8737873287092891  1.0000
  Mo  Mo34      1.0  0.7517728028024367  0.2491362942171839  0.0016105206711681953  1.0000
  Nb  Nb61      1.0  0.8751498808820574  0.37490462157568233  0.12592864762333375  1.0000
  W   W7        1.0  0.75047054402769  0.24922457529267614  0.25212387464287994  1.0000
  Mo  Mo35      1.0  0.8754343833226813  0.3742055278035806  0.37631974167016446  1.0000
  Mo  Mo36      1.0  0.7509414001494972  0.24914161901611065  0.5002334864483264  1.0000
  Mo  Mo37      1.0  0.8761089791758816  0.3754359680172238  0.625350054729532  1.0000
  Nb  Nb62      1.0  0.7537768529663519  0.2502213820456018  0.7454643282828838  1.0000
  Nb  Nb63      1.0  0.878414883874423  0.3743017591486908  0.8739129464554614  1.0000
  Nb  Nb64      1.0  0.7513908287835953  0.5001070700897152  0.0004307968991061224  1.0000
  Nb  Nb65      1.0  0.8747098721817632  0.6284506110814704  0.12370870351991721  1.0000
  Nb  Nb66      1.0  0.7527101451521576  0.5012912632497467  0.25418992456662065  1.0000
  Mo  Mo38      1.0  0.874360100158182  0.6260615660021891  0.3760572655230368  1.0000
  Mo  Mo39      1.0  0.7565718802118733  0.49881076841478805  0.4999586662270643  1.0000
  Nb  Nb67      1.0  0.8754241399506056  0.624180558249315  0.6237654718751331  1.0000
  Nb  Nb68      1.0  0.7493034310222396  0.5005299083196056  0.7460539535301829  1.0000
  Nb  Nb69      1.0  0.8786980679972846  0.6278552702513467  0.8762420703700162  1.0000
  Mo  Mo40      1.0  0.7506480631531086  0.7505219386342333  0.9994441844856176  1.0000
  Mo  Mo41      1.0  0.8755788517974308  0.8749212531208257  0.12398225772958112  1.0000
  Mo  Mo42      1.0  0.7482314790201907  0.7482787131479862  0.2514134156243727  1.0000
  Nb  Nb70      1.0  0.8713946452612518  0.8745100338380227  0.3754043563011248  1.0000
  Nb  Nb71      1.0  0.7454953975792225  0.74851329920185  0.4997850440340068  1.0000
  Mo  Mo43      1.0  0.8754168465334667  0.8731552715530927  0.6248911196137272  1.0000
  Nb  Nb72      1.0  0.7492419885507985  0.752124316381792  0.7480046564037532  1.0000
  Mo  Mo44      1.0  0.8764421140994747  0.8749336310959939  0.875260431224606  1.0000
